LTspice 24.0.12 for Windows
Circuit: * C:\Users\alexb\OneDrive - Université Libre de Bruxelles\MA1-ULBDrive\ELEC-Y418\LAB\Labs\CMOS\EX2\quiz6.asc
Start Time: Fri May  2 10:49:52 2025
solver = Normal
Maximum thread count: 20
tnom = 27
temp = 27
method = modified trap
Warning: Pd = 0 is less than W.
Warning: Ps = 0 is less than W.
Total elapsed time: 0.104 seconds.

