LTspice 24.0.12 for Windows
Circuit: * C:\Users\alexb\OneDrive - Université Libre de Bruxelles\MA1-ULBDrive\ELEC-Y418\LAB\Labs\CMOS\EX2\quiz8.asc
Start Time: Fri May  2 11:18:27 2025
solver = Normal
Maximum thread count: 20



Warning: Pd = 0 is less than W.
Warning: Ps = 0 is less than W.
Direct Newton iteration for .op point succeeded.
.step s=0



.step s=2e-07



.step s=4e-07



.step s=6e-07



.step s=8e-07



.step s=1e-06



.step s=1.2e-06



.step s=1.4e-06



.step s=1.6e-06



.step s=1.8e-06



.step s=2e-06



.step s=2.2e-06



.step s=2.4e-06



.step s=2.6e-06



.step s=2.8e-06



.step s=3e-06



.step s=3.2e-06



.step s=3.4e-06



.step s=3.6e-06



.step s=3.8e-06
tnom = 27
temp = 27
method = modified trap
.step s=4e-06
Total elapsed time: 1.371 seconds.

