LTspice 24.0.12 for Windows
Circuit: * C:\Users\alexb\OneDrive - Université Libre de Bruxelles\MA1-ULBDrive\ELEC-Y418\LAB\Labs\CMOS\EX3\quiz1.asc
Start Time: Tue May 13 09:44:02 2025
solver = Normal
Maximum thread count: 20



Warning: Pd = 0 is less than W.
Warning: Ps = 0 is less than W.
Warning: Pd = 0 is less than W.
Warning: Ps = 0 is less than W.
Direct Newton iteration for .op point succeeded.
.step s=0



.step s=5e-08



.step s=1e-07



.step s=1.5e-07



.step s=2e-07



.step s=2.5e-07



.step s=3e-07



.step s=3.5e-07



.step s=4e-07



.step s=4.5e-07



.step s=5e-07



.step s=5.5e-07



.step s=6e-07



.step s=6.5e-07



.step s=7e-07



.step s=7.5e-07



.step s=8e-07



.step s=8.5e-07



.step s=9e-07



.step s=9.5e-07



.step s=1e-06



.step s=1.05e-06



.step s=1.1e-06



.step s=1.15e-06



.step s=1.2e-06



.step s=1.25e-06



.step s=1.3e-06



.step s=1.35e-06



.step s=1.4e-06



.step s=1.45e-06
tnom = 27
temp = 27
method = modified trap
.step s=1.5e-06
Total elapsed time: 1.590 seconds.

