LTspice 24.0.12 for Windows
Circuit: * C:\Users\alexb\OneDrive - Université Libre de Bruxelles\MA1-ULBDrive\ELEC-Y418\LAB\Labs\CMOS\EX1\quiz_q6.asc
Start Time: Mon Apr 28 15:33:56 2025
solver = Normal
Maximum thread count: 20



Direct Newton iteration for .op point succeeded.
.step r=1000



.step r=3500



.step r=6000



.step r=8500
tnom = 27
temp = 27
method = modified trap
.step r=10000
Total elapsed time: 0.349 seconds.

