LTspice 24.0.12 for Windows
Circuit: * C:\Users\alexb\OneDrive - Université Libre de Bruxelles\MA1-ULBDrive\ELEC-Y418\LAB\Labs\CMOS\EX1\quiz_q13.asc
Start Time: Wed Apr 30 12:53:19 2025
solver = Normal
Maximum thread count: 20
tnom = 27
temp = 27
method = modified trap
WARNING: Node N002 is floating.

.OP point found by inspection.
Total elapsed time: 0.148 seconds.

