LTspice 24.0.12 for Windows
Circuit: * C:\Users\alexb\OneDrive - Université Libre de Bruxelles\MA1-ULBDrive\ELEC-Y418\LAB\Labs\CMOS\EX1\quiz_q1.asc
Start Time: Mon Apr 28 14:39:23 2025
solver = Normal
Maximum thread count: 20
tnom = 27
temp = 27
method = modified trap
.OP point found by inspection.
Total elapsed time: 0.087 seconds.

