LTspice 24.0.12 for Windows
Circuit: * C:\Users\alexb\OneDrive - Université Libre de Bruxelles\MA1-ULBDrive\ELEC-Y418\LAB\Labs\CMOS\EX1\quiz_q5.asc
Start Time: Mon Apr 28 15:06:12 2025
solver = Normal
Maximum thread count: 20
tnom = 27
temp = 27
method = modified trap
Total elapsed time: 0.066 seconds.

