LTspice 24.0.12 for Windows
Circuit: * C:\Users\alexb\OneDrive - Université Libre de Bruxelles\MA1-ULBDrive\ELEC-Y418\LAB\Labs\CMOS\EX1\quiz_q7.asc
Start Time: Mon Apr 28 16:17:38 2025
solver = Normal
Maximum thread count: 20



Direct Newton iteration for .op point succeeded.
.step r=1000



.step r=3500



.step r=6000



.step r=8500
tnom = 27
temp = 27
method = modified trap
.step r=10000


Measurement: gmax
  step	MAX(mag(v(n002)))	FROM	TO
     1	(-0.842dB,0°)	10000	1e+07
     2	(-2.61607dB,0°)	10000	1e+07
     3	(-4.08909dB,0°)	10000	1e+07
     4	(-5.34844dB,0°)	10000	1e+07
     5	(-6.02488dB,0°)	10000	1e+07

Measurement: fc
  step	mag(v(n002))=gmax/sqrt(2)
     1	176241
     2	216024
     3	255306
     4	295519
     5	318797

Total elapsed time: 0.213 seconds.

